     4
unstable frequency at     -7.678 1/cm IR int. is 1.7650e+00 D^2/Ang^2; red. mass is 1.032 a.m.u.; force const. is 0.000 mDyne/Ang.
O         0.0000    0.0000    0.1908   -0.0000   -0.0403    0.0000
H         0.8243   -0.4759    0.4742    0.0000    0.1892    0.3852
H        -0.8243   -0.4759    0.4742   -0.0000    0.1892    0.3852
H        -0.0000    0.9517    0.4745   -0.0000    0.1894   -0.7708
     4
unstable frequency at     -7.598 1/cm IR int. is 6.8187e-01 D^2/Ang^2; red. mass is 1.019 a.m.u.; force const. is 0.000 mDyne/Ang.
O         0.0000    0.0000    0.1908   -0.0269    0.0000    0.0000
H         0.8243   -0.4759    0.4742    0.3421    0.3913   -0.4162
H        -0.8243   -0.4759    0.4742    0.3421   -0.3913    0.4162
H        -0.0000    0.9517    0.4745   -0.3354   -0.0000    0.0000
     4
unstable frequency at     -0.001 1/cm IR int. is 1.2128e+00 D^2/Ang^2; red. mass is 4.756 a.m.u.; force const. is 0.000 mDyne/Ang.
O         0.0000    0.0000    0.1908    0.0000    0.0003    0.5000
H         0.8243   -0.4759    0.4742    0.0000    0.0003    0.5000
H        -0.8243   -0.4759    0.4742   -0.0000    0.0003    0.5000
H        -0.0000    0.9517    0.4745    0.0000    0.0003    0.5000
     4
stable frequency at      0.120 1/cm IR int. is 1.2218e+00 D^2/Ang^2; red. mass is 4.730 a.m.u.; force const. is 0.000 mDyne/Ang.
O         0.0000    0.0000    0.1908    0.4983   -0.0000   -0.0000
H         0.8243   -0.4759    0.4742    0.5127    0.0222   -0.0046
H        -0.8243   -0.4759    0.4742    0.5127   -0.0222    0.0046
H        -0.0000    0.9517    0.4745    0.4742   -0.0000    0.0000
     4
stable frequency at      0.127 1/cm IR int. is 1.2618e+00 D^2/Ang^2; red. mass is 4.662 a.m.u.; force const. is 0.000 mDyne/Ang.
O         0.0000    0.0000    0.1908   -0.0000   -0.4937    0.0003
H         0.8243   -0.4759    0.4742   -0.0000   -0.5017   -0.0132
H        -0.8243   -0.4759    0.4742    0.0000   -0.5017   -0.0132
H        -0.0000    0.9517    0.4745   -0.0000   -0.5017    0.0273
     4
stable frequency at      6.255 1/cm IR int. is 1.1231e+00 D^2/Ang^2; red. mass is 1.018 a.m.u.; force const. is 0.000 mDyne/Ang.
O         0.0000    0.0000    0.1908   -0.0258   -0.0000   -0.0000
H         0.8243   -0.4759    0.4742   -0.0304   -0.3153   -0.5160
H        -0.8243   -0.4759    0.4742   -0.0304    0.3153    0.5160
H        -0.0000    0.9517    0.4745    0.5158   -0.0000    0.0000
     4
stable frequency at    822.124 1/cm IR int. is 1.1224e+01 D^2/Ang^2; red. mass is 1.170 a.m.u.; force const. is 0.466 mDyne/Ang.
O         0.0000    0.0000    0.1908   -0.0000   -0.0000    0.1039
H         0.8243   -0.4759    0.4742    0.1434   -0.0826   -0.5500
H        -0.8243   -0.4759    0.4742   -0.1434   -0.0826   -0.5500
H        -0.0000    0.9517    0.4745    0.0000    0.1655   -0.5496
     4
stable frequency at   1613.799 1/cm IR int. is 2.6898e+00 D^2/Ang^2; red. mass is 1.066 a.m.u.; force const. is 1.636 mDyne/Ang.
O         0.0000    0.0000    0.1908   -0.0623   -0.0000   -0.0000
H         0.8243   -0.4759    0.4742    0.1040    0.3911    0.1702
H        -0.8243   -0.4759    0.4742    0.1040   -0.3911   -0.1702
H        -0.0000    0.9517    0.4745    0.7815   -0.0000    0.0000
     4
stable frequency at   1613.810 1/cm IR int. is 2.6889e+00 D^2/Ang^2; red. mass is 1.066 a.m.u.; force const. is 1.636 mDyne/Ang.
O         0.0000    0.0000    0.1908   -0.0000    0.0623    0.0000
H         0.8243   -0.4759    0.4742   -0.3911   -0.5557    0.0981
H        -0.8243   -0.4759    0.4742    0.3911   -0.5557    0.0981
H        -0.0000    0.9517    0.4745    0.0000    0.1220   -0.1966
     4
stable frequency at   3505.384 1/cm IR int. is 1.0877e+00 D^2/Ang^2; red. mass is 1.019 a.m.u.; force const. is 7.375 mDyne/Ang.
O         0.0000    0.0000    0.1908    0.0000    0.0001   -0.0268
H         0.8243   -0.4759    0.4742    0.4850   -0.2800    0.1417
H        -0.8243   -0.4759    0.4742   -0.4850   -0.2800    0.1417
H        -0.0000    0.9517    0.4745   -0.0000    0.5584    0.1414
     4
stable frequency at   3591.220 1/cm IR int. is 1.3136e+01 D^2/Ang^2; red. mass is 1.090 a.m.u.; force const. is 8.280 mDyne/Ang.
O         0.0000    0.0000    0.1908    0.0738   -0.0000    0.0000
H         0.8243   -0.4759    0.4742   -0.5854    0.3375   -0.2015
H        -0.8243   -0.4759    0.4742   -0.5854   -0.3375    0.2015
H        -0.0000    0.9517    0.4745   -0.0008    0.0000    0.0000
     4
stable frequency at   3591.252 1/cm IR int. is 1.3136e+01 D^2/Ang^2; red. mass is 1.090 a.m.u.; force const. is 8.280 mDyne/Ang.
O         0.0000    0.0000    0.1908   -0.0000   -0.0738   -0.0001
H         0.8243   -0.4759    0.4742   -0.3368    0.1953   -0.1161
H        -0.8243   -0.4759    0.4742    0.3368    0.1953   -0.1161
H        -0.0000    0.9517    0.4745    0.0000    0.7811    0.2331
