          4

O          0.00000000          -0.00002909          -0.10817729
H          0.85488761          -0.49352202          0.57386939
H          -0.85488761          -0.49352202          0.57386939
H          -0.00000000          0.98707314          0.57414764
          4

O          0.00000000          0.00004784          0.06439309
H          0.86337976          -0.49852058          0.51636046
H          -0.86337976          -0.49852058          0.51636046
H          -0.00000000          0.99699333          0.51659513
          4

O          0.00000000          0.00002172          0.17740146
H          0.69164963          -0.39917658          0.47870505
H          -0.69164963          -0.39917658          0.47870505
H          0.00000000          0.79833146          0.47889757
          4

O          -0.00000000          -0.00001540          0.14242098
H          0.84547312          -0.48812576          0.49034489
H          -0.84547312          -0.48812576          0.49034489
H          0.00000000          0.97626693          0.49059836
          4

O          0.00000000          0.00014181          0.18250891
H          0.81164241          -0.46878447          0.47700401
H          -0.81164241          -0.46878447          0.47700401
H          -0.00000000          0.93742714          0.47719221
          4

O          -0.00000000          -0.00004762          0.18097439
H          0.82236490          -0.47466492          0.47749477
H          -0.82236490          -0.47466492          0.47749477
H          0.00000000          0.94937747          0.47774519
          4

O          0.00000000          0.00012159          0.18469951
H          0.82243930          -0.47498670          0.47627056
H          -0.82243930          -0.47498670          0.47627056
H          -0.00000000          0.94985182          0.47646850
          4

O          -0.00000000          -0.00021387          0.18983355
H          0.82406498          -0.47538273          0.47452510
H          -0.82406498          -0.47538273          0.47452510
H          0.00000000          0.95097935          0.47482537
          4

O          0.00000000          0.00038489          0.19082478
H          0.82383829          -0.47621978          0.47425424
H          -0.82383829          -0.47621978          0.47425424
H          -0.00000000          0.95205468          0.47437588
          4

O          0.00000000          0.00001836          0.19077151
H          0.82425584          -0.47587261          0.47423563
H          -0.82425584          -0.47587261          0.47423563
H          -0.00000000          0.95172688          0.47446636

